Circuit: * \\userfs\irag500\w2k\Git\PROM\Mic Preamp.asc

Early termination of direct N-R iteration.
Direct Newton iteration failed to find .op point.  (Use ".option noopiter" to skip.)
Starting Gmin stepping
Gmin = 10
vernier = 0.5
vernier = 0.25
vernier = 0.125
vernier = 0.0625
Gmin = 8.61953
vernier = 0.03125
vernier = 0.015625
vernier = 0.0078125
vernier = 0.00390625
Gmin = 8.47038
vernier = 0.00195313
vernier = 0.000976563
vernier = 0.000488281
Gmin = 0
Gmin stepping succeeded in finding the operating point.


Date: Thu Apr 26 11:59:12 2018
Total elapsed time: 0.204 seconds.

tnom = 27
temp = 27
method = modified trap
totiter = 4266
traniter = 2900
tranpoints = 1451
accept = 885
rejected = 566
matrix size = 55
fillins = 274
solver = Normal
Matrix Compiler1: 22.6 KB object code size  3.2/1.4/[0.8]
Matrix Compiler2: 9.06 KB object code size  1.1/1.0/[0.5]


